<?xml version="1.0" encoding="UTF-8"?>
<edges>
    <!-- Internal horizontal edges (East-West) -->
    <edge id="n_0_0_to_n_0_1" from="n_0_0" to="n_0_1" numLanes="2" speed="13.89"/>
    <edge id="n_0_1_to_n_0_0" from="n_0_1" to="n_0_0" numLanes="2" speed="13.89"/>
    <edge id="n_0_1_to_n_0_2" from="n_0_1" to="n_0_2" numLanes="2" speed="13.89"/>
    <edge id="n_0_2_to_n_0_1" from="n_0_2" to="n_0_1" numLanes="2" speed="13.89"/>
    <edge id="n_0_2_to_n_0_3" from="n_0_2" to="n_0_3" numLanes="2" speed="13.89"/>
    <edge id="n_0_3_to_n_0_2" from="n_0_3" to="n_0_2" numLanes="2" speed="13.89"/>
    <edge id="n_1_0_to_n_1_1" from="n_1_0" to="n_1_1" numLanes="2" speed="13.89"/>
    <edge id="n_1_1_to_n_1_0" from="n_1_1" to="n_1_0" numLanes="2" speed="13.89"/>
    <edge id="n_1_1_to_n_1_2" from="n_1_1" to="n_1_2" numLanes="2" speed="13.89"/>
    <edge id="n_1_2_to_n_1_1" from="n_1_2" to="n_1_1" numLanes="2" speed="13.89"/>
    <edge id="n_1_2_to_n_1_3" from="n_1_2" to="n_1_3" numLanes="2" speed="13.89"/>
    <edge id="n_1_3_to_n_1_2" from="n_1_3" to="n_1_2" numLanes="2" speed="13.89"/>
    <edge id="n_2_0_to_n_2_1" from="n_2_0" to="n_2_1" numLanes="2" speed="13.89"/>
    <edge id="n_2_1_to_n_2_0" from="n_2_1" to="n_2_0" numLanes="2" speed="13.89"/>
    <edge id="n_2_1_to_n_2_2" from="n_2_1" to="n_2_2" numLanes="2" speed="13.89"/>
    <edge id="n_2_2_to_n_2_1" from="n_2_2" to="n_2_1" numLanes="2" speed="13.89"/>
    <edge id="n_2_2_to_n_2_3" from="n_2_2" to="n_2_3" numLanes="2" speed="13.89"/>
    <edge id="n_2_3_to_n_2_2" from="n_2_3" to="n_2_2" numLanes="2" speed="13.89"/>
    <edge id="n_3_0_to_n_3_1" from="n_3_0" to="n_3_1" numLanes="2" speed="13.89"/>
    <edge id="n_3_1_to_n_3_0" from="n_3_1" to="n_3_0" numLanes="2" speed="13.89"/>
    <edge id="n_3_1_to_n_3_2" from="n_3_1" to="n_3_2" numLanes="2" speed="13.89"/>
    <edge id="n_3_2_to_n_3_1" from="n_3_2" to="n_3_1" numLanes="2" speed="13.89"/>
    <edge id="n_3_2_to_n_3_3" from="n_3_2" to="n_3_3" numLanes="2" speed="13.89"/>
    <edge id="n_3_3_to_n_3_2" from="n_3_3" to="n_3_2" numLanes="2" speed="13.89"/>
    <!-- Internal vertical edges (North-South) -->
    <edge id="n_0_0_to_n_1_0" from="n_0_0" to="n_1_0" numLanes="2" speed="13.89"/>
    <edge id="n_1_0_to_n_0_0" from="n_1_0" to="n_0_0" numLanes="2" speed="13.89"/>
    <edge id="n_0_1_to_n_1_1" from="n_0_1" to="n_1_1" numLanes="2" speed="13.89"/>
    <edge id="n_1_1_to_n_0_1" from="n_1_1" to="n_0_1" numLanes="2" speed="13.89"/>
    <edge id="n_0_2_to_n_1_2" from="n_0_2" to="n_1_2" numLanes="2" speed="13.89"/>
    <edge id="n_1_2_to_n_0_2" from="n_1_2" to="n_0_2" numLanes="2" speed="13.89"/>
    <edge id="n_0_3_to_n_1_3" from="n_0_3" to="n_1_3" numLanes="2" speed="13.89"/>
    <edge id="n_1_3_to_n_0_3" from="n_1_3" to="n_0_3" numLanes="2" speed="13.89"/>
    <edge id="n_1_0_to_n_2_0" from="n_1_0" to="n_2_0" numLanes="2" speed="13.89"/>
    <edge id="n_2_0_to_n_1_0" from="n_2_0" to="n_1_0" numLanes="2" speed="13.89"/>
    <edge id="n_1_1_to_n_2_1" from="n_1_1" to="n_2_1" numLanes="2" speed="13.89"/>
    <edge id="n_2_1_to_n_1_1" from="n_2_1" to="n_1_1" numLanes="2" speed="13.89"/>
    <edge id="n_1_2_to_n_2_2" from="n_1_2" to="n_2_2" numLanes="2" speed="13.89"/>
    <edge id="n_2_2_to_n_1_2" from="n_2_2" to="n_1_2" numLanes="2" speed="13.89"/>
    <edge id="n_1_3_to_n_2_3" from="n_1_3" to="n_2_3" numLanes="2" speed="13.89"/>
    <edge id="n_2_3_to_n_1_3" from="n_2_3" to="n_1_3" numLanes="2" speed="13.89"/>
    <edge id="n_2_0_to_n_3_0" from="n_2_0" to="n_3_0" numLanes="2" speed="13.89"/>
    <edge id="n_3_0_to_n_2_0" from="n_3_0" to="n_2_0" numLanes="2" speed="13.89"/>
    <edge id="n_2_1_to_n_3_1" from="n_2_1" to="n_3_1" numLanes="2" speed="13.89"/>
    <edge id="n_3_1_to_n_2_1" from="n_3_1" to="n_2_1" numLanes="2" speed="13.89"/>
    <edge id="n_2_2_to_n_3_2" from="n_2_2" to="n_3_2" numLanes="2" speed="13.89"/>
    <edge id="n_3_2_to_n_2_2" from="n_3_2" to="n_2_2" numLanes="2" speed="13.89"/>
    <edge id="n_2_3_to_n_3_3" from="n_2_3" to="n_3_3" numLanes="2" speed="13.89"/>
    <edge id="n_3_3_to_n_2_3" from="n_3_3" to="n_2_3" numLanes="2" speed="13.89"/>
    <!-- Boundary edges (North) -->
    <edge id="b_N0_to_n_0_0" from="b_N0" to="n_0_0" numLanes="2" speed="13.89"/>
    <edge id="n_0_0_to_b_N0" from="n_0_0" to="b_N0" numLanes="2" speed="13.89"/>
    <edge id="b_N1_to_n_0_1" from="b_N1" to="n_0_1" numLanes="2" speed="13.89"/>
    <edge id="n_0_1_to_b_N1" from="n_0_1" to="b_N1" numLanes="2" speed="13.89"/>
    <edge id="b_N2_to_n_0_2" from="b_N2" to="n_0_2" numLanes="2" speed="13.89"/>
    <edge id="n_0_2_to_b_N2" from="n_0_2" to="b_N2" numLanes="2" speed="13.89"/>
    <edge id="b_N3_to_n_0_3" from="b_N3" to="n_0_3" numLanes="2" speed="13.89"/>
    <edge id="n_0_3_to_b_N3" from="n_0_3" to="b_N3" numLanes="2" speed="13.89"/>
    <!-- Boundary edges (South) -->
    <edge id="b_S0_to_n_3_0" from="b_S0" to="n_3_0" numLanes="2" speed="13.89"/>
    <edge id="n_3_0_to_b_S0" from="n_3_0" to="b_S0" numLanes="2" speed="13.89"/>
    <edge id="b_S1_to_n_3_1" from="b_S1" to="n_3_1" numLanes="2" speed="13.89"/>
    <edge id="n_3_1_to_b_S1" from="n_3_1" to="b_S1" numLanes="2" speed="13.89"/>
    <edge id="b_S2_to_n_3_2" from="b_S2" to="n_3_2" numLanes="2" speed="13.89"/>
    <edge id="n_3_2_to_b_S2" from="n_3_2" to="b_S2" numLanes="2" speed="13.89"/>
    <edge id="b_S3_to_n_3_3" from="b_S3" to="n_3_3" numLanes="2" speed="13.89"/>
    <edge id="n_3_3_to_b_S3" from="n_3_3" to="b_S3" numLanes="2" speed="13.89"/>
    <!-- Boundary edges (West) -->
    <edge id="b_W0_to_n_0_0" from="b_W0" to="n_0_0" numLanes="2" speed="13.89"/>
    <edge id="n_0_0_to_b_W0" from="n_0_0" to="b_W0" numLanes="2" speed="13.89"/>
    <edge id="b_W1_to_n_1_0" from="b_W1" to="n_1_0" numLanes="2" speed="13.89"/>
    <edge id="n_1_0_to_b_W1" from="n_1_0" to="b_W1" numLanes="2" speed="13.89"/>
    <edge id="b_W2_to_n_2_0" from="b_W2" to="n_2_0" numLanes="2" speed="13.89"/>
    <edge id="n_2_0_to_b_W2" from="n_2_0" to="b_W2" numLanes="2" speed="13.89"/>
    <edge id="b_W3_to_n_3_0" from="b_W3" to="n_3_0" numLanes="2" speed="13.89"/>
    <edge id="n_3_0_to_b_W3" from="n_3_0" to="b_W3" numLanes="2" speed="13.89"/>
    <!-- Boundary edges (East) -->
    <edge id="b_E0_to_n_0_3" from="b_E0" to="n_0_3" numLanes="2" speed="13.89"/>
    <edge id="n_0_3_to_b_E0" from="n_0_3" to="b_E0" numLanes="2" speed="13.89"/>
    <edge id="b_E1_to_n_1_3" from="b_E1" to="n_1_3" numLanes="2" speed="13.89"/>
    <edge id="n_1_3_to_b_E1" from="n_1_3" to="b_E1" numLanes="2" speed="13.89"/>
    <edge id="b_E2_to_n_2_3" from="b_E2" to="n_2_3" numLanes="2" speed="13.89"/>
    <edge id="n_2_3_to_b_E2" from="n_2_3" to="b_E2" numLanes="2" speed="13.89"/>
    <edge id="b_E3_to_n_3_3" from="b_E3" to="n_3_3" numLanes="2" speed="13.89"/>
    <edge id="n_3_3_to_b_E3" from="n_3_3" to="b_E3" numLanes="2" speed="13.89"/>
</edges>