<?xml version="1.0" encoding="UTF-8"?>
<nodes>
    <node id="n_0_0" x="0" y="300" type="traffic_light"/>
    <node id="n_0_1" x="100" y="300" type="traffic_light"/>
    <node id="n_0_2" x="200" y="300" type="traffic_light"/>
    <node id="n_0_3" x="300" y="300" type="traffic_light"/>
    <node id="n_1_0" x="0" y="200" type="traffic_light"/>
    <node id="n_1_1" x="100" y="200" type="traffic_light"/>
    <node id="n_1_2" x="200" y="200" type="traffic_light"/>
    <node id="n_1_3" x="300" y="200" type="traffic_light"/>
    <node id="n_2_0" x="0" y="100" type="traffic_light"/>
    <node id="n_2_1" x="100" y="100" type="traffic_light"/>
    <node id="n_2_2" x="200" y="100" type="traffic_light"/>
    <node id="n_2_3" x="300" y="100" type="traffic_light"/>
    <node id="n_3_0" x="0" y="0" type="traffic_light"/>
    <node id="n_3_1" x="100" y="0" type="traffic_light"/>
    <node id="n_3_2" x="200" y="0" type="traffic_light"/>
    <node id="n_3_3" x="300" y="0" type="traffic_light"/>
    <node id="b_N0" x="0" y="500"/>
    <node id="b_N1" x="100" y="500"/>
    <node id="b_N2" x="200" y="500"/>
    <node id="b_N3" x="300" y="500"/>
    <node id="b_S0" x="0" y="-200"/>
    <node id="b_S1" x="100" y="-200"/>
    <node id="b_S2" x="200" y="-200"/>
    <node id="b_S3" x="300" y="-200"/>
    <node id="b_W0" x="-200" y="300"/>
    <node id="b_W1" x="-200" y="200"/>
    <node id="b_W2" x="-200" y="100"/>
    <node id="b_W3" x="-200" y="0"/>
    <node id="b_E0" x="500" y="300"/>
    <node id="b_E1" x="500" y="200"/>
    <node id="b_E2" x="500" y="100"/>
    <node id="b_E3" x="500" y="0"/>
</nodes>