<?xml version="1.0" encoding="UTF-8"?>

<!-- generated on 2026-03-26T10:30:54.141573+08:00 by Eclipse SUMO netconvert 1.26.0
<netconvertConfiguration xmlns:xsi="http://www.w3.org/2001/XMLSchema-instance" xsi:noNamespaceSchemaLocation="http://sumo.dlr.de/xsd/netconvertConfiguration.xsd">

    <input>
        <node-files value="/home/samuel/projects/pi_light_OR/networks/grid_4x4/grid_4x4.nod.xml"/>
        <edge-files value="/home/samuel/projects/pi_light_OR/networks/grid_4x4/grid_4x4.edg.xml"/>
    </input>

    <output>
        <output-file value="/home/samuel/projects/pi_light_OR/networks/grid_4x4/grid_4x4.net.xml"/>
    </output>

    <tls_building>
        <tls.guess value="true"/>
    </tls_building>

    <junctions>
        <no-turnarounds value="true"/>
    </junctions>

</netconvertConfiguration>
-->

<net version="1.20" junctionCornerDetail="5" limitTurnSpeed="5.50" xmlns:xsi="http://www.w3.org/2001/XMLSchema-instance" xsi:noNamespaceSchemaLocation="http://sumo.dlr.de/xsd/net_file.xsd">

    <location netOffset="200.00,200.00" convBoundary="0.00,0.00,700.00,700.00" origBoundary="-200.00,-200.00,500.00,500.00" projParameter="!"/>

    <edge id=":n_0_0_0" function="internal">
        <lane id=":n_0_0_0_0" index="0" speed="6.51" length="9.03" shape="195.20,510.40 194.85,507.95 193.80,506.20 192.05,505.15 189.60,504.80"/>
    </edge>
    <edge id=":n_0_0_1" function="internal">
        <lane id=":n_0_0_1_0" index="0" speed="13.89" length="20.80" shape="195.20,510.40 195.20,489.60"/>
        <lane id=":n_0_0_1_1" index="1" speed="13.89" length="20.80" shape="198.40,510.40 198.40,489.60"/>
    </edge>
    <edge id=":n_0_0_3" function="internal">
        <lane id=":n_0_0_3_0" index="0" speed="9.26" length="5.01" shape="198.40,510.40 199.11,505.44"/>
    </edge>
    <edge id=":n_0_0_16" function="internal">
        <lane id=":n_0_0_16_0" index="0" speed="9.26" length="14.34" shape="199.11,505.44 199.15,505.15 201.40,501.40 205.15,499.15 210.40,498.40"/>
    </edge>
    <edge id=":n_0_0_4" function="internal">
        <lane id=":n_0_0_4_0" index="0" speed="6.51" length="9.03" shape="210.40,504.80 207.95,505.15 206.20,506.20 205.15,507.95 204.80,510.40"/>
    </edge>
    <edge id=":n_0_0_5" function="internal">
        <lane id=":n_0_0_5_0" index="0" speed="13.89" length="20.80" shape="210.40,504.80 189.60,504.80"/>
        <lane id=":n_0_0_5_1" index="1" speed="13.89" length="20.80" shape="210.40,501.60 189.60,501.60"/>
    </edge>
    <edge id=":n_0_0_7" function="internal">
        <lane id=":n_0_0_7_0" index="0" speed="9.26" length="5.01" shape="210.40,501.60 205.44,500.89"/>
    </edge>
    <edge id=":n_0_0_17" function="internal">
        <lane id=":n_0_0_17_0" index="0" speed="9.26" length="14.34" shape="205.44,500.89 205.15,500.85 201.40,498.60 199.15,494.85 198.40,489.60"/>
    </edge>
    <edge id=":n_0_0_8" function="internal">
        <lane id=":n_0_0_8_0" index="0" speed="6.51" length="9.03" shape="204.80,489.60 205.15,492.05 206.20,493.80 207.95,494.85 210.40,495.20"/>
    </edge>
    <edge id=":n_0_0_9" function="internal">
        <lane id=":n_0_0_9_0" index="0" speed="13.89" length="20.80" shape="204.80,489.60 204.80,510.40"/>
        <lane id=":n_0_0_9_1" index="1" speed="13.89" length="20.80" shape="201.60,489.60 201.60,510.40"/>
    </edge>
    <edge id=":n_0_0_11" function="internal">
        <lane id=":n_0_0_11_0" index="0" speed="9.26" length="5.01" shape="201.60,489.60 200.89,494.56"/>
    </edge>
    <edge id=":n_0_0_18" function="internal">
        <lane id=":n_0_0_18_0" index="0" speed="9.26" length="14.34" shape="200.89,494.56 200.85,494.85 198.60,498.60 194.85,500.85 189.60,501.60"/>
    </edge>
    <edge id=":n_0_0_12" function="internal">
        <lane id=":n_0_0_12_0" index="0" speed="6.51" length="9.03" shape="189.60,495.20 192.05,494.85 193.80,493.80 194.85,492.05 195.20,489.60"/>
    </edge>
    <edge id=":n_0_0_13" function="internal">
        <lane id=":n_0_0_13_0" index="0" speed="13.89" length="20.80" shape="189.60,495.20 210.40,495.20"/>
        <lane id=":n_0_0_13_1" index="1" speed="13.89" length="20.80" shape="189.60,498.40 210.40,498.40"/>
    </edge>
    <edge id=":n_0_0_15" function="internal">
        <lane id=":n_0_0_15_0" index="0" speed="9.26" length="5.01" shape="189.60,498.40 194.56,499.11"/>
    </edge>
    <edge id=":n_0_0_19" function="internal">
        <lane id=":n_0_0_19_0" index="0" speed="9.26" length="14.34" shape="194.56,499.11 194.85,499.15 198.60,501.40 200.85,505.15 201.60,510.40"/>
    </edge>
    <edge id=":n_0_1_0" function="internal">
        <lane id=":n_0_1_0_0" index="0" speed="6.51" length="9.03" shape="295.20,510.40 294.85,507.95 293.80,506.20 292.05,505.15 289.60,504.80"/>
    </edge>
    <edge id=":n_0_1_1" function="internal">
        <lane id=":n_0_1_1_0" index="0" speed="13.89" length="20.80" shape="295.20,510.40 295.20,489.60"/>
        <lane id=":n_0_1_1_1" index="1" speed="13.89" length="20.80" shape="298.40,510.40 298.40,489.60"/>
    </edge>
    <edge id=":n_0_1_3" function="internal">
        <lane id=":n_0_1_3_0" index="0" speed="9.26" length="5.01" shape="298.40,510.40 299.11,505.44"/>
    </edge>
    <edge id=":n_0_1_16" function="internal">
        <lane id=":n_0_1_16_0" index="0" speed="9.26" length="14.34" shape="299.11,505.44 299.15,505.15 301.40,501.40 305.15,499.15 310.40,498.40"/>
    </edge>
    <edge id=":n_0_1_4" function="internal">
        <lane id=":n_0_1_4_0" index="0" speed="6.51" length="9.03" shape="310.40,504.80 307.95,505.15 306.20,506.20 305.15,507.95 304.80,510.40"/>
    </edge>
    <edge id=":n_0_1_5" function="internal">
        <lane id=":n_0_1_5_0" index="0" speed="13.89" length="20.80" shape="310.40,504.80 289.60,504.80"/>
        <lane id=":n_0_1_5_1" index="1" speed="13.89" length="20.80" shape="310.40,501.60 289.60,501.60"/>
    </edge>
    <edge id=":n_0_1_7" function="internal">
        <lane id=":n_0_1_7_0" index="0" speed="9.26" length="5.01" shape="310.40,501.60 305.44,500.89"/>
    </edge>
    <edge id=":n_0_1_17" function="internal">
        <lane id=":n_0_1_17_0" index="0" speed="9.26" length="14.34" shape="305.44,500.89 305.15,500.85 301.40,498.60 299.15,494.85 298.40,489.60"/>
    </edge>
    <edge id=":n_0_1_8" function="internal">
        <lane id=":n_0_1_8_0" index="0" speed="6.51" length="9.03" shape="304.80,489.60 305.15,492.05 306.20,493.80 307.95,494.85 310.40,495.20"/>
    </edge>
    <edge id=":n_0_1_9" function="internal">
        <lane id=":n_0_1_9_0" index="0" speed="13.89" length="20.80" shape="304.80,489.60 304.80,510.40"/>
        <lane id=":n_0_1_9_1" index="1" speed="13.89" length="20.80" shape="301.60,489.60 301.60,510.40"/>
    </edge>
    <edge id=":n_0_1_11" function="internal">
        <lane id=":n_0_1_11_0" index="0" speed="9.26" length="5.01" shape="301.60,489.60 300.89,494.56"/>
    </edge>
    <edge id=":n_0_1_18" function="internal">
        <lane id=":n_0_1_18_0" index="0" speed="9.26" length="14.34" shape="300.89,494.56 300.85,494.85 298.60,498.60 294.85,500.85 289.60,501.60"/>
    </edge>
    <edge id=":n_0_1_12" function="internal">
        <lane id=":n_0_1_12_0" index="0" speed="6.51" length="9.03" shape="289.60,495.20 292.05,494.85 293.80,493.80 294.85,492.05 295.20,489.60"/>
    </edge>
    <edge id=":n_0_1_13" function="internal">
        <lane id=":n_0_1_13_0" index="0" speed="13.89" length="20.80" shape="289.60,495.20 310.40,495.20"/>
        <lane id=":n_0_1_13_1" index="1" speed="13.89" length="20.80" shape="289.60,498.40 310.40,498.40"/>
    </edge>
    <edge id=":n_0_1_15" function="internal">
        <lane id=":n_0_1_15_0" index="0" speed="9.26" length="5.01" shape="289.60,498.40 294.56,499.11"/>
    </edge>
    <edge id=":n_0_1_19" function="internal">
        <lane id=":n_0_1_19_0" index="0" speed="9.26" length="14.34" shape="294.56,499.11 294.85,499.15 298.60,501.40 300.85,505.15 301.60,510.40"/>
    </edge>
    <edge id=":n_0_2_0" function="internal">
        <lane id=":n_0_2_0_0" index="0" speed="6.51" length="9.03" shape="395.20,510.40 394.85,507.95 393.80,506.20 392.05,505.15 389.60,504.80"/>
    </edge>
    <edge id=":n_0_2_1" function="internal">
        <lane id=":n_0_2_1_0" index="0" speed="13.89" length="20.80" shape="395.20,510.40 395.20,489.60"/>
        <lane id=":n_0_2_1_1" index="1" speed="13.89" length="20.80" shape="398.40,510.40 398.40,489.60"/>
    </edge>
    <edge id=":n_0_2_3" function="internal">
        <lane id=":n_0_2_3_0" index="0" speed="9.26" length="5.01" shape="398.40,510.40 399.11,505.44"/>
    </edge>
    <edge id=":n_0_2_16" function="internal">
        <lane id=":n_0_2_16_0" index="0" speed="9.26" length="14.34" shape="399.11,505.44 399.15,505.15 401.40,501.40 405.15,499.15 410.40,498.40"/>
    </edge>
    <edge id=":n_0_2_4" function="internal">
        <lane id=":n_0_2_4_0" index="0" speed="6.51" length="9.03" shape="410.40,504.80 407.95,505.15 406.20,506.20 405.15,507.95 404.80,510.40"/>
    </edge>
    <edge id=":n_0_2_5" function="internal">
        <lane id=":n_0_2_5_0" index="0" speed="13.89" length="20.80" shape="410.40,504.80 389.60,504.80"/>
        <lane id=":n_0_2_5_1" index="1" speed="13.89" length="20.80" shape="410.40,501.60 389.60,501.60"/>
    </edge>
    <edge id=":n_0_2_7" function="internal">
        <lane id=":n_0_2_7_0" index="0" speed="9.26" length="5.01" shape="410.40,501.60 405.44,500.89"/>
    </edge>
    <edge id=":n_0_2_17" function="internal">
        <lane id=":n_0_2_17_0" index="0" speed="9.26" length="14.34" shape="405.44,500.89 405.15,500.85 401.40,498.60 399.15,494.85 398.40,489.60"/>
    </edge>
    <edge id=":n_0_2_8" function="internal">
        <lane id=":n_0_2_8_0" index="0" speed="6.51" length="9.03" shape="404.80,489.60 405.15,492.05 406.20,493.80 407.95,494.85 410.40,495.20"/>
    </edge>
    <edge id=":n_0_2_9" function="internal">
        <lane id=":n_0_2_9_0" index="0" speed="13.89" length="20.80" shape="404.80,489.60 404.80,510.40"/>
        <lane id=":n_0_2_9_1" index="1" speed="13.89" length="20.80" shape="401.60,489.60 401.60,510.40"/>
    </edge>
    <edge id=":n_0_2_11" function="internal">
        <lane id=":n_0_2_11_0" index="0" speed="9.26" length="5.01" shape="401.60,489.60 400.89,494.56"/>
    </edge>
    <edge id=":n_0_2_18" function="internal">
        <lane id=":n_0_2_18_0" index="0" speed="9.26" length="14.34" shape="400.89,494.56 400.85,494.85 398.60,498.60 394.85,500.85 389.60,501.60"/>
    </edge>
    <edge id=":n_0_2_12" function="internal">
        <lane id=":n_0_2_12_0" index="0" speed="6.51" length="9.03" shape="389.60,495.20 392.05,494.85 393.80,493.80 394.85,492.05 395.20,489.60"/>
    </edge>
    <edge id=":n_0_2_13" function="internal">
        <lane id=":n_0_2_13_0" index="0" speed="13.89" length="20.80" shape="389.60,495.20 410.40,495.20"/>
        <lane id=":n_0_2_13_1" index="1" speed="13.89" length="20.80" shape="389.60,498.40 410.40,498.40"/>
    </edge>
    <edge id=":n_0_2_15" function="internal">
        <lane id=":n_0_2_15_0" index="0" speed="9.26" length="5.01" shape="389.60,498.40 394.56,499.11"/>
    </edge>
    <edge id=":n_0_2_19" function="internal">
        <lane id=":n_0_2_19_0" index="0" speed="9.26" length="14.34" shape="394.56,499.11 394.85,499.15 398.60,501.40 400.85,505.15 401.60,510.40"/>
    </edge>
    <edge id=":n_0_3_0" function="internal">
        <lane id=":n_0_3_0_0" index="0" speed="6.51" length="9.03" shape="495.20,510.40 494.85,507.95 493.80,506.20 492.05,505.15 489.60,504.80"/>
    </edge>
    <edge id=":n_0_3_1" function="internal">
        <lane id=":n_0_3_1_0" index="0" speed="13.89" length="20.80" shape="495.20,510.40 495.20,489.60"/>
        <lane id=":n_0_3_1_1" index="1" speed="13.89" length="20.80" shape="498.40,510.40 498.40,489.60"/>
    </edge>
    <edge id=":n_0_3_3" function="internal">
        <lane id=":n_0_3_3_0" index="0" speed="9.26" length="5.01" shape="498.40,510.40 499.11,505.44"/>
    </edge>
    <edge id=":n_0_3_16" function="internal">
        <lane id=":n_0_3_16_0" index="0" speed="9.26" length="14.34" shape="499.11,505.44 499.15,505.15 501.40,501.40 505.15,499.15 510.40,498.40"/>
    </edge>
    <edge id=":n_0_3_4" function="internal">
        <lane id=":n_0_3_4_0" index="0" speed="6.51" length="9.03" shape="510.40,504.80 507.95,505.15 506.20,506.20 505.15,507.95 504.80,510.40"/>
    </edge>
    <edge id=":n_0_3_5" function="internal">
        <lane id=":n_0_3_5_0" index="0" speed="13.89" length="20.80" shape="510.40,504.80 489.60,504.80"/>
        <lane id=":n_0_3_5_1" index="1" speed="13.89" length="20.80" shape="510.40,501.60 489.60,501.60"/>
    </edge>
    <edge id=":n_0_3_7" function="internal">
        <lane id=":n_0_3_7_0" index="0" speed="9.26" length="5.01" shape="510.40,501.60 505.44,500.89"/>
    </edge>
    <edge id=":n_0_3_17" function="internal">
        <lane id=":n_0_3_17_0" index="0" speed="9.26" length="14.34" shape="505.44,500.89 505.15,500.85 501.40,498.60 499.15,494.85 498.40,489.60"/>
    </edge>
    <edge id=":n_0_3_8" function="internal">
        <lane id=":n_0_3_8_0" index="0" speed="6.51" length="9.03" shape="504.80,489.60 505.15,492.05 506.20,493.80 507.95,494.85 510.40,495.20"/>
    </edge>
    <edge id=":n_0_3_9" function="internal">
        <lane id=":n_0_3_9_0" index="0" speed="13.89" length="20.80" shape="504.80,489.60 504.80,510.40"/>
        <lane id=":n_0_3_9_1" index="1" speed="13.89" length="20.80" shape="501.60,489.60 501.60,510.40"/>
    </edge>
    <edge id=":n_0_3_11" function="internal">
        <lane id=":n_0_3_11_0" index="0" speed="9.26" length="5.01" shape="501.60,489.60 500.89,494.56"/>
    </edge>
    <edge id=":n_0_3_18" function="internal">
        <lane id=":n_0_3_18_0" index="0" speed="9.26" length="14.34" shape="500.89,494.56 500.85,494.85 498.60,498.60 494.85,500.85 489.60,501.60"/>
    </edge>
    <edge id=":n_0_3_12" function="internal">
        <lane id=":n_0_3_12_0" index="0" speed="6.51" length="9.03" shape="489.60,495.20 492.05,494.85 493.80,493.80 494.85,492.05 495.20,489.60"/>
    </edge>
    <edge id=":n_0_3_13" function="internal">
        <lane id=":n_0_3_13_0" index="0" speed="13.89" length="20.80" shape="489.60,495.20 510.40,495.20"/>
        <lane id=":n_0_3_13_1" index="1" speed="13.89" length="20.80" shape="489.60,498.40 510.40,498.40"/>
    </edge>
    <edge id=":n_0_3_15" function="internal">
        <lane id=":n_0_3_15_0" index="0" speed="9.26" length="5.01" shape="489.60,498.40 494.56,499.11"/>
    </edge>
    <edge id=":n_0_3_19" function="internal">
        <lane id=":n_0_3_19_0" index="0" speed="9.26" length="14.34" shape="494.56,499.11 494.85,499.15 498.60,501.40 500.85,505.15 501.60,510.40"/>
    </edge>
    <edge id=":n_1_0_0" function="internal">
        <lane id=":n_1_0_0_0" index="0" speed="6.51" length="9.03" shape="195.20,410.40 194.85,407.95 193.80,406.20 192.05,405.15 189.60,404.80"/>
    </edge>
    <edge id=":n_1_0_1" function="internal">
        <lane id=":n_1_0_1_0" index="0" speed="13.89" length="20.80" shape="195.20,410.40 195.20,389.60"/>
        <lane id=":n_1_0_1_1" index="1" speed="13.89" length="20.80" shape="198.40,410.40 198.40,389.60"/>
    </edge>
    <edge id=":n_1_0_3" function="internal">
        <lane id=":n_1_0_3_0" index="0" speed="9.26" length="5.01" shape="198.40,410.40 199.11,405.44"/>
    </edge>
    <edge id=":n_1_0_16" function="internal">
        <lane id=":n_1_0_16_0" index="0" speed="9.26" length="14.34" shape="199.11,405.44 199.15,405.15 201.40,401.40 205.15,399.15 210.40,398.40"/>
    </edge>
    <edge id=":n_1_0_4" function="internal">
        <lane id=":n_1_0_4_0" index="0" speed="6.51" length="9.03" shape="210.40,404.80 207.95,405.15 206.20,406.20 205.15,407.95 204.80,410.40"/>
    </edge>
    <edge id=":n_1_0_5" function="internal">
        <lane id=":n_1_0_5_0" index="0" speed="13.89" length="20.80" shape="210.40,404.80 189.60,404.80"/>
        <lane id=":n_1_0_5_1" index="1" speed="13.89" length="20.80" shape="210.40,401.60 189.60,401.60"/>
    </edge>
    <edge id=":n_1_0_7" function="internal">
        <lane id=":n_1_0_7_0" index="0" speed="9.26" length="5.01" shape="210.40,401.60 205.44,400.89"/>
    </edge>
    <edge id=":n_1_0_17" function="internal">
        <lane id=":n_1_0_17_0" index="0" speed="9.26" length="14.34" shape="205.44,400.89 205.15,400.85 201.40,398.60 199.15,394.85 198.40,389.60"/>
    </edge>
    <edge id=":n_1_0_8" function="internal">
        <lane id=":n_1_0_8_0" index="0" speed="6.51" length="9.03" shape="204.80,389.60 205.15,392.05 206.20,393.80 207.95,394.85 210.40,395.20"/>
    </edge>
    <edge id=":n_1_0_9" function="internal">
        <lane id=":n_1_0_9_0" index="0" speed="13.89" length="20.80" shape="204.80,389.60 204.80,410.40"/>
        <lane id=":n_1_0_9_1" index="1" speed="13.89" length="20.80" shape="201.60,389.60 201.60,410.40"/>
    </edge>
    <edge id=":n_1_0_11" function="internal">
        <lane id=":n_1_0_11_0" index="0" speed="9.26" length="5.01" shape="201.60,389.60 200.89,394.56"/>
    </edge>
    <edge id=":n_1_0_18" function="internal">
        <lane id=":n_1_0_18_0" index="0" speed="9.26" length="14.34" shape="200.89,394.56 200.85,394.85 198.60,398.60 194.85,400.85 189.60,401.60"/>
    </edge>
    <edge id=":n_1_0_12" function="internal">
        <lane id=":n_1_0_12_0" index="0" speed="6.51" length="9.03" shape="189.60,395.20 192.05,394.85 193.80,393.80 194.85,392.05 195.20,389.60"/>
    </edge>
    <edge id=":n_1_0_13" function="internal">
        <lane id=":n_1_0_13_0" index="0" speed="13.89" length="20.80" shape="189.60,395.20 210.40,395.20"/>
        <lane id=":n_1_0_13_1" index="1" speed="13.89" length="20.80" shape="189.60,398.40 210.40,398.40"/>
    </edge>
    <edge id=":n_1_0_15" function="internal">
        <lane id=":n_1_0_15_0" index="0" speed="9.26" length="5.01" shape="189.60,398.40 194.56,399.11"/>
    </edge>
    <edge id=":n_1_0_19" function="internal">
        <lane id=":n_1_0_19_0" index="0" speed="9.26" length="14.34" shape="194.56,399.11 194.85,399.15 198.60,401.40 200.85,405.15 201.60,410.40"/>
    </edge>
    <edge id=":n_1_1_0" function="internal">
        <lane id=":n_1_1_0_0" index="0" speed="6.51" length="9.03" shape="295.20,410.40 294.85,407.95 293.80,406.20 292.05,405.15 289.60,404.80"/>
    </edge>
    <edge id=":n_1_1_1" function="internal">
        <lane id=":n_1_1_1_0" index="0" speed="13.89" length="20.80" shape="295.20,410.40 295.20,389.60"/>
        <lane id=":n_1_1_1_1" index="1" speed="13.89" length="20.80" shape="298.40,410.40 298.40,389.60"/>
    </edge>
    <edge id=":n_1_1_3" function="internal">
        <lane id=":n_1_1_3_0" index="0" speed="9.26" length="5.01" shape="298.40,410.40 299.11,405.44"/>
    </edge>
    <edge id=":n_1_1_16" function="internal">
        <lane id=":n_1_1_16_0" index="0" speed="9.26" length="14.34" shape="299.11,405.44 299.15,405.15 301.40,401.40 305.15,399.15 310.40,398.40"/>
    </edge>
    <edge id=":n_1_1_4" function="internal">
        <lane id=":n_1_1_4_0" index="0" speed="6.51" length="9.03" shape="310.40,404.80 307.95,405.15 306.20,406.20 305.15,407.95 304.80,410.40"/>
    </edge>
    <edge id=":n_1_1_5" function="internal">
        <lane id=":n_1_1_5_0" index="0" speed="13.89" length="20.80" shape="310.40,404.80 289.60,404.80"/>
        <lane id=":n_1_1_5_1" index="1" speed="13.89" length="20.80" shape="310.40,401.60 289.60,401.60"/>
    </edge>
    <edge id=":n_1_1_7" function="internal">
        <lane id=":n_1_1_7_0" index="0" speed="9.26" length="5.01" shape="310.40,401.60 305.44,400.89"/>
    </edge>
    <edge id=":n_1_1_17" function="internal">
        <lane id=":n_1_1_17_0" index="0" speed="9.26" length="14.34" shape="305.44,400.89 305.15,400.85 301.40,398.60 299.15,394.85 298.40,389.60"/>
    </edge>
    <edge id=":n_1_1_8" function="internal">
        <lane id=":n_1_1_8_0" index="0" speed="6.51" length="9.03" shape="304.80,389.60 305.15,392.05 306.20,393.80 307.95,394.85 310.40,395.20"/>
    </edge>
    <edge id=":n_1_1_9" function="internal">
        <lane id=":n_1_1_9_0" index="0" speed="13.89" length="20.80" shape="304.80,389.60 304.80,410.40"/>
        <lane id=":n_1_1_9_1" index="1" speed="13.89" length="20.80" shape="301.60,389.60 301.60,410.40"/>
    </edge>
    <edge id=":n_1_1_11" function="internal">
        <lane id=":n_1_1_11_0" index="0" speed="9.26" length="5.01" shape="301.60,389.60 300.89,394.56"/>
    </edge>
    <edge id=":n_1_1_18" function="internal">
        <lane id=":n_1_1_18_0" index="0" speed="9.26" length="14.34" shape="300.89,394.56 300.85,394.85 298.60,398.60 294.85,400.85 289.60,401.60"/>
    </edge>
    <edge id=":n_1_1_12" function="internal">
        <lane id=":n_1_1_12_0" index="0" speed="6.51" length="9.03" shape="289.60,395.20 292.05,394.85 293.80,393.80 294.85,392.05 295.20,389.60"/>
    </edge>
    <edge id=":n_1_1_13" function="internal">
        <lane id=":n_1_1_13_0" index="0" speed="13.89" length="20.80" shape="289.60,395.20 310.40,395.20"/>
        <lane id=":n_1_1_13_1" index="1" speed="13.89" length="20.80" shape="289.60,398.40 310.40,398.40"/>
    </edge>
    <edge id=":n_1_1_15" function="internal">
        <lane id=":n_1_1_15_0" index="0" speed="9.26" length="5.01" shape="289.60,398.40 294.56,399.11"/>
    </edge>
    <edge id=":n_1_1_19" function="internal">
        <lane id=":n_1_1_19_0" index="0" speed="9.26" length="14.34" shape="294.56,399.11 294.85,399.15 298.60,401.40 300.85,405.15 301.60,410.40"/>
    </edge>
    <edge id=":n_1_2_0" function="internal">
        <lane id=":n_1_2_0_0" index="0" speed="6.51" length="9.03" shape="395.20,410.40 394.85,407.95 393.80,406.20 392.05,405.15 389.60,404.80"/>
    </edge>
    <edge id=":n_1_2_1" function="internal">
        <lane id=":n_1_2_1_0" index="0" speed="13.89" length="20.80" shape="395.20,410.40 395.20,389.60"/>
        <lane id=":n_1_2_1_1" index="1" speed="13.89" length="20.80" shape="398.40,410.40 398.40,389.60"/>
    </edge>
    <edge id=":n_1_2_3" function="internal">
        <lane id=":n_1_2_3_0" index="0" speed="9.26" length="5.01" shape="398.40,410.40 399.11,405.44"/>
    </edge>
    <edge id=":n_1_2_16" function="internal">
        <lane id=":n_1_2_16_0" index="0" speed="9.26" length="14.34" shape="399.11,405.44 399.15,405.15 401.40,401.40 405.15,399.15 410.40,398.40"/>
    </edge>
    <edge id=":n_1_2_4" function="internal">
        <lane id=":n_1_2_4_0" index="0" speed="6.51" length="9.03" shape="410.40,404.80 407.95,405.15 406.20,406.20 405.15,407.95 404.80,410.40"/>
    </edge>
    <edge id=":n_1_2_5" function="internal">
        <lane id=":n_1_2_5_0" index="0" speed="13.89" length="20.80" shape="410.40,404.80 389.60,404.80"/>
        <lane id=":n_1_2_5_1" index="1" speed="13.89" length="20.80" shape="410.40,401.60 389.60,401.60"/>
    </edge>
    <edge id=":n_1_2_7" function="internal">
        <lane id=":n_1_2_7_0" index="0" speed="9.26" length="5.01" shape="410.40,401.60 405.44,400.89"/>
    </edge>
    <edge id=":n_1_2_17" function="internal">
        <lane id=":n_1_2_17_0" index="0" speed="9.26" length="14.34" shape="405.44,400.89 405.15,400.85 401.40,398.60 399.15,394.85 398.40,389.60"/>
    </edge>
    <edge id=":n_1_2_8" function="internal">
        <lane id=":n_1_2_8_0" index="0" speed="6.51" length="9.03" shape="404.80,389.60 405.15,392.05 406.20,393.80 407.95,394.85 410.40,395.20"/>
    </edge>
    <edge id=":n_1_2_9" function="internal">
        <lane id=":n_1_2_9_0" index="0" speed="13.89" length="20.80" shape="404.80,389.60 404.80,410.40"/>
        <lane id=":n_1_2_9_1" index="1" speed="13.89" length="20.80" shape="401.60,389.60 401.60,410.40"/>
    </edge>
    <edge id=":n_1_2_11" function="internal">
        <lane id=":n_1_2_11_0" index="0" speed="9.26" length="5.01" shape="401.60,389.60 400.89,394.56"/>
    </edge>
    <edge id=":n_1_2_18" function="internal">
        <lane id=":n_1_2_18_0" index="0" speed="9.26" length="14.34" shape="400.89,394.56 400.85,394.85 398.60,398.60 394.85,400.85 389.60,401.60"/>
    </edge>
    <edge id=":n_1_2_12" function="internal">
        <lane id=":n_1_2_12_0" index="0" speed="6.51" length="9.03" shape="389.60,395.20 392.05,394.85 393.80,393.80 394.85,392.05 395.20,389.60"/>
    </edge>
    <edge id=":n_1_2_13" function="internal">
        <lane id=":n_1_2_13_0" index="0" speed="13.89" length="20.80" shape="389.60,395.20 410.40,395.20"/>
        <lane id=":n_1_2_13_1" index="1" speed="13.89" length="20.80" shape="389.60,398.40 410.40,398.40"/>
    </edge>
    <edge id=":n_1_2_15" function="internal">
        <lane id=":n_1_2_15_0" index="0" speed="9.26" length="5.01" shape="389.60,398.40 394.56,399.11"/>
    </edge>
    <edge id=":n_1_2_19" function="internal">
        <lane id=":n_1_2_19_0" index="0" speed="9.26" length="14.34" shape="394.56,399.11 394.85,399.15 398.60,401.40 400.85,405.15 401.60,410.40"/>
    </edge>
    <edge id=":n_1_3_0" function="internal">
        <lane id=":n_1_3_0_0" index="0" speed="6.51" length="9.03" shape="495.20,410.40 494.85,407.95 493.80,406.20 492.05,405.15 489.60,404.80"/>
    </edge>
    <edge id=":n_1_3_1" function="internal">
        <lane id=":n_1_3_1_0" index="0" speed="13.89" length="20.80" shape="495.20,410.40 495.20,389.60"/>
        <lane id=":n_1_3_1_1" index="1" speed="13.89" length="20.80" shape="498.40,410.40 498.40,389.60"/>
    </edge>
    <edge id=":n_1_3_3" function="internal">
        <lane id=":n_1_3_3_0" index="0" speed="9.26" length="5.01" shape="498.40,410.40 499.11,405.44"/>
    </edge>
    <edge id=":n_1_3_16" function="internal">
        <lane id=":n_1_3_16_0" index="0" speed="9.26" length="14.34" shape="499.11,405.44 499.15,405.15 501.40,401.40 505.15,399.15 510.40,398.40"/>
    </edge>
    <edge id=":n_1_3_4" function="internal">
        <lane id=":n_1_3_4_0" index="0" speed="6.51" length="9.03" shape="510.40,404.80 507.95,405.15 506.20,406.20 505.15,407.95 504.80,410.40"/>
    </edge>
    <edge id=":n_1_3_5" function="internal">
        <lane id=":n_1_3_5_0" index="0" speed="13.89" length="20.80" shape="510.40,404.80 489.60,404.80"/>
        <lane id=":n_1_3_5_1" index="1" speed="13.89" length="20.80" shape="510.40,401.60 489.60,401.60"/>
    </edge>
    <edge id=":n_1_3_7" function="internal">
        <lane id=":n_1_3_7_0" index="0" speed="9.26" length="5.01" shape="510.40,401.60 505.44,400.89"/>
    </edge>
    <edge id=":n_1_3_17" function="internal">
        <lane id=":n_1_3_17_0" index="0" speed="9.26" length="14.34" shape="505.44,400.89 505.15,400.85 501.40,398.60 499.15,394.85 498.40,389.60"/>
    </edge>
    <edge id=":n_1_3_8" function="internal">
        <lane id=":n_1_3_8_0" index="0" speed="6.51" length="9.03" shape="504.80,389.60 505.15,392.05 506.20,393.80 507.95,394.85 510.40,395.20"/>
    </edge>
    <edge id=":n_1_3_9" function="internal">
        <lane id=":n_1_3_9_0" index="0" speed="13.89" length="20.80" shape="504.80,389.60 504.80,410.40"/>
        <lane id=":n_1_3_9_1" index="1" speed="13.89" length="20.80" shape="501.60,389.60 501.60,410.40"/>
    </edge>
    <edge id=":n_1_3_11" function="internal">
        <lane id=":n_1_3_11_0" index="0" speed="9.26" length="5.01" shape="501.60,389.60 500.89,394.56"/>
    </edge>
    <edge id=":n_1_3_18" function="internal">
        <lane id=":n_1_3_18_0" index="0" speed="9.26" length="14.34" shape="500.89,394.56 500.85,394.85 498.60,398.60 494.85,400.85 489.60,401.60"/>
    </edge>
    <edge id=":n_1_3_12" function="internal">
        <lane id=":n_1_3_12_0" index="0" speed="6.51" length="9.03" shape="489.60,395.20 492.05,394.85 493.80,393.80 494.85,392.05 495.20,389.60"/>
    </edge>
    <edge id=":n_1_3_13" function="internal">
        <lane id=":n_1_3_13_0" index="0" speed="13.89" length="20.80" shape="489.60,395.20 510.40,395.20"/>
        <lane id=":n_1_3_13_1" index="1" speed="13.89" length="20.80" shape="489.60,398.40 510.40,398.40"/>
    </edge>
    <edge id=":n_1_3_15" function="internal">
        <lane id=":n_1_3_15_0" index="0" speed="9.26" length="5.01" shape="489.60,398.40 494.56,399.11"/>
    </edge>
    <edge id=":n_1_3_19" function="internal">
        <lane id=":n_1_3_19_0" index="0" speed="9.26" length="14.34" shape="494.56,399.11 494.85,399.15 498.60,401.40 500.85,405.15 501.60,410.40"/>
    </edge>
    <edge id=":n_2_0_0" function="internal">
        <lane id=":n_2_0_0_0" index="0" speed="6.51" length="9.03" shape="195.20,310.40 194.85,307.95 193.80,306.20 192.05,305.15 189.60,304.80"/>
    </edge>
    <edge id=":n_2_0_1" function="internal">
        <lane id=":n_2_0_1_0" index="0" speed="13.89" length="20.80" shape="195.20,310.40 195.20,289.60"/>
        <lane id=":n_2_0_1_1" index="1" speed="13.89" length="20.80" shape="198.40,310.40 198.40,289.60"/>
    </edge>
    <edge id=":n_2_0_3" function="internal">
        <lane id=":n_2_0_3_0" index="0" speed="9.26" length="5.01" shape="198.40,310.40 199.11,305.44"/>
    </edge>
    <edge id=":n_2_0_16" function="internal">
        <lane id=":n_2_0_16_0" index="0" speed="9.26" length="14.34" shape="199.11,305.44 199.15,305.15 201.40,301.40 205.15,299.15 210.40,298.40"/>
    </edge>
    <edge id=":n_2_0_4" function="internal">
        <lane id=":n_2_0_4_0" index="0" speed="6.51" length="9.03" shape="210.40,304.80 207.95,305.15 206.20,306.20 205.15,307.95 204.80,310.40"/>
    </edge>
    <edge id=":n_2_0_5" function="internal">
        <lane id=":n_2_0_5_0" index="0" speed="13.89" length="20.80" shape="210.40,304.80 189.60,304.80"/>
        <lane id=":n_2_0_5_1" index="1" speed="13.89" length="20.80" shape="210.40,301.60 189.60,301.60"/>
    </edge>
    <edge id=":n_2_0_7" function="internal">
        <lane id=":n_2_0_7_0" index="0" speed="9.26" length="5.01" shape="210.40,301.60 205.44,300.89"/>
    </edge>
    <edge id=":n_2_0_17" function="internal">
        <lane id=":n_2_0_17_0" index="0" speed="9.26" length="14.34" shape="205.44,300.89 205.15,300.85 201.40,298.60 199.15,294.85 198.40,289.60"/>
    </edge>
    <edge id=":n_2_0_8" function="internal">