<?xml version="1.0" encoding="UTF-8"?>

<!-- generated on 2026-03-26T10:30:05.043382+08:00 by Eclipse SUMO netconvert 1.26.0
<netconvertConfiguration xmlns:xsi="http://www.w3.org/2001/XMLSchema-instance" xsi:noNamespaceSchemaLocation="http://sumo.dlr.de/xsd/netconvertConfiguration.xsd">

    <input>
        <node-files value="/home/samuel/projects/pi_light_OR/networks/arterial/arterial.nod.xml"/>
        <edge-files value="/home/samuel/projects/pi_light_OR/networks/arterial/arterial.edg.xml"/>
    </input>

    <output>
        <output-file value="/home/samuel/projects/pi_light_OR/networks/arterial/arterial.net.xml"/>
    </output>

    <tls_building>
        <tls.guess value="true"/>
    </tls_building>

    <junctions>
        <no-turnarounds value="true"/>
    </junctions>

</netconvertConfiguration>
-->

<net version="1.20" junctionCornerDetail="5" limitTurnSpeed="5.50" xmlns:xsi="http://www.w3.org/2001/XMLSchema-instance" xsi:noNamespaceSchemaLocation="http://sumo.dlr.de/xsd/net_file.xsd">

    <location netOffset="300.00,300.00" convBoundary="0.00,0.00,1800.00,600.00" origBoundary="-300.00,-300.00,1500.00,300.00" projParameter="!"/>

    <edge id=":C1_0" function="internal">
        <lane id=":C1_0_0" index="0" speed="6.51" length="9.03" shape="292.00,313.60 291.65,311.15 290.60,309.40 288.85,308.35 286.40,308.00"/>
    </edge>
    <edge id=":C1_1" function="internal">
        <lane id=":C1_1_0" index="0" speed="13.89" length="27.20" shape="292.00,313.60 292.00,286.40"/>
        <lane id=":C1_1_1" index="1" speed="13.89" length="27.20" shape="295.20,313.60 295.20,286.40"/>
        <lane id=":C1_1_2" index="2" speed="13.89" length="27.20" shape="298.40,313.60 298.40,286.40"/>
    </edge>
    <edge id=":C1_4" function="internal">
        <lane id=":C1_4_0" index="0" speed="10.36" length="5.01" shape="298.40,313.60 299.11,308.64"/>
    </edge>
    <edge id=":C1_20" function="internal">
        <lane id=":C1_20_0" index="0" speed="10.36" length="19.50" shape="299.11,308.64 299.35,306.95 302.20,302.20 306.95,299.35 313.60,298.40"/>
    </edge>
    <edge id=":C1_5" function="internal">
        <lane id=":C1_5_0" index="0" speed="6.51" length="9.03" shape="313.60,308.00 311.15,308.35 309.40,309.40 308.35,311.15 308.00,313.60"/>
    </edge>
    <edge id=":C1_6" function="internal">
        <lane id=":C1_6_0" index="0" speed="13.89" length="27.20" shape="313.60,308.00 286.40,308.00"/>
        <lane id=":C1_6_1" index="1" speed="13.89" length="27.20" shape="313.60,304.80 286.40,304.80"/>
        <lane id=":C1_6_2" index="2" speed="13.89" length="27.20" shape="313.60,301.60 286.40,301.60"/>
    </edge>
    <edge id=":C1_9" function="internal">
        <lane id=":C1_9_0" index="0" speed="10.36" length="5.01" shape="313.60,301.60 308.64,300.89"/>
    </edge>
    <edge id=":C1_21" function="internal">
        <lane id=":C1_21_0" index="0" speed="10.36" length="19.50" shape="308.64,300.89 306.95,300.65 302.20,297.80 299.35,293.05 298.40,286.40"/>
    </edge>
    <edge id=":C1_10" function="internal">
        <lane id=":C1_10_0" index="0" speed="6.51" length="9.03" shape="308.00,286.40 308.35,288.85 309.40,290.60 311.15,291.65 313.60,292.00"/>
    </edge>
    <edge id=":C1_11" function="internal">
        <lane id=":C1_11_0" index="0" speed="13.89" length="27.20" shape="308.00,286.40 308.00,313.60"/>
        <lane id=":C1_11_1" index="1" speed="13.89" length="27.20" shape="304.80,286.40 304.80,313.60"/>
        <lane id=":C1_11_2" index="2" speed="13.89" length="27.20" shape="301.60,286.40 301.60,313.60"/>
    </edge>
    <edge id=":C1_14" function="internal">
        <lane id=":C1_14_0" index="0" speed="10.36" length="5.01" shape="301.60,286.40 300.89,291.36"/>
    </edge>
    <edge id=":C1_22" function="internal">
        <lane id=":C1_22_0" index="0" speed="10.36" length="19.50" shape="300.89,291.36 300.65,293.05 297.80,297.80 293.05,300.65 286.40,301.60"/>
    </edge>
    <edge id=":C1_15" function="internal">
        <lane id=":C1_15_0" index="0" speed="6.51" length="9.03" shape="286.40,292.00 288.85,291.65 290.60,290.60 291.65,288.85 292.00,286.40"/>
    </edge>
    <edge id=":C1_16" function="internal">
        <lane id=":C1_16_0" index="0" speed="13.89" length="27.20" shape="286.40,292.00 313.60,292.00"/>
        <lane id=":C1_16_1" index="1" speed="13.89" length="27.20" shape="286.40,295.20 313.60,295.20"/>
        <lane id=":C1_16_2" index="2" speed="13.89" length="27.20" shape="286.40,298.40 313.60,298.40"/>
    </edge>
    <edge id=":C1_19" function="internal">
        <lane id=":C1_19_0" index="0" speed="10.36" length="5.01" shape="286.40,298.40 291.36,299.11"/>
    </edge>
    <edge id=":C1_23" function="internal">
        <lane id=":C1_23_0" index="0" speed="10.36" length="19.50" shape="291.36,299.11 293.05,299.35 297.80,302.20 300.65,306.95 301.60,313.60"/>
    </edge>
    <edge id=":C2_0" function="internal">
        <lane id=":C2_0_0" index="0" speed="6.51" length="9.03" shape="592.00,313.60 591.65,311.15 590.60,309.40 588.85,308.35 586.40,308.00"/>
    </edge>
    <edge id=":C2_1" function="internal">
        <lane id=":C2_1_0" index="0" speed="13.89" length="27.20" shape="592.00,313.60 592.00,286.40"/>
        <lane id=":C2_1_1" index="1" speed="13.89" length="27.20" shape="595.20,313.60 595.20,286.40"/>
        <lane id=":C2_1_2" index="2" speed="13.89" length="27.20" shape="598.40,313.60 598.40,286.40"/>
    </edge>
    <edge id=":C2_4" function="internal">
        <lane id=":C2_4_0" index="0" speed="10.36" length="5.01" shape="598.40,313.60 599.11,308.64"/>
    </edge>
    <edge id=":C2_20" function="internal">
        <lane id=":C2_20_0" index="0" speed="10.36" length="19.50" shape="599.11,308.64 599.35,306.95 602.20,302.20 606.95,299.35 613.60,298.40"/>
    </edge>
    <edge id=":C2_5" function="internal">
        <lane id=":C2_5_0" index="0" speed="6.51" length="9.03" shape="613.60,308.00 611.15,308.35 609.40,309.40 608.35,311.15 608.00,313.60"/>
    </edge>
    <edge id=":C2_6" function="internal">
        <lane id=":C2_6_0" index="0" speed="13.89" length="27.20" shape="613.60,308.00 586.40,308.00"/>
        <lane id=":C2_6_1" index="1" speed="13.89" length="27.20" shape="613.60,304.80 586.40,304.80"/>
        <lane id=":C2_6_2" index="2" speed="13.89" length="27.20" shape="613.60,301.60 586.40,301.60"/>
    </edge>
    <edge id=":C2_9" function="internal">
        <lane id=":C2_9_0" index="0" speed="10.36" length="5.01" shape="613.60,301.60 608.64,300.89"/>
    </edge>
    <edge id=":C2_21" function="internal">
        <lane id=":C2_21_0" index="0" speed="10.36" length="19.50" shape="608.64,300.89 606.95,300.65 602.20,297.80 599.35,293.05 598.40,286.40"/>
    </edge>
    <edge id=":C2_10" function="internal">
        <lane id=":C2_10_0" index="0" speed="6.51" length="9.03" shape="608.00,286.40 608.35,288.85 609.40,290.60 611.15,291.65 613.60,292.00"/>
    </edge>
    <edge id=":C2_11" function="internal">
        <lane id=":C2_11_0" index="0" speed="13.89" length="27.20" shape="608.00,286.40 608.00,313.60"/>
        <lane id=":C2_11_1" index="1" speed="13.89" length="27.20" shape="604.80,286.40 604.80,313.60"/>
        <lane id=":C2_11_2" index="2" speed="13.89" length="27.20" shape="601.60,286.40 601.60,313.60"/>
    </edge>
    <edge id=":C2_14" function="internal">
        <lane id=":C2_14_0" index="0" speed="10.36" length="5.01" shape="601.60,286.40 600.89,291.36"/>
    </edge>
    <edge id=":C2_22" function="internal">
        <lane id=":C2_22_0" index="0" speed="10.36" length="19.50" shape="600.89,291.36 600.65,293.05 597.80,297.80 593.05,300.65 586.40,301.60"/>
    </edge>
    <edge id=":C2_15" function="internal">
        <lane id=":C2_15_0" index="0" speed="6.51" length="9.03" shape="586.40,292.00 588.85,291.65 590.60,290.60 591.65,288.85 592.00,286.40"/>
    </edge>
    <edge id=":C2_16" function="internal">
        <lane id=":C2_16_0" index="0" speed="13.89" length="27.20" shape="586.40,292.00 613.60,292.00"/>
        <lane id=":C2_16_1" index="1" speed="13.89" length="27.20" shape="586.40,295.20 613.60,295.20"/>
        <lane id=":C2_16_2" index="2" speed="13.89" length="27.20" shape="586.40,298.40 613.60,298.40"/>
    </edge>
    <edge id=":C2_19" function="internal">
        <lane id=":C2_19_0" index="0" speed="10.36" length="5.01" shape="586.40,298.40 591.36,299.11"/>
    </edge>
    <edge id=":C2_23" function="internal">
        <lane id=":C2_23_0" index="0" speed="10.36" length="19.50" shape="591.36,299.11 593.05,299.35 597.80,302.20 600.65,306.95 601.60,313.60"/>
    </edge>
    <edge id=":C3_0" function="internal">
        <lane id=":C3_0_0" index="0" speed="6.51" length="9.03" shape="892.00,313.60 891.65,311.15 890.60,309.40 888.85,308.35 886.40,308.00"/>
    </edge>
    <edge id=":C3_1" function="internal">
        <lane id=":C3_1_0" index="0" speed="13.89" length="27.20" shape="892.00,313.60 892.00,286.40"/>
        <lane id=":C3_1_1" index="1" speed="13.89" length="27.20" shape="895.20,313.60 895.20,286.40"/>
        <lane id=":C3_1_2" index="2" speed="13.89" length="27.20" shape="898.40,313.60 898.40,286.40"/>
    </edge>
    <edge id=":C3_4" function="internal">
        <lane id=":C3_4_0" index="0" speed="10.36" length="5.01" shape="898.40,313.60 899.11,308.64"/>
    </edge>
    <edge id=":C3_20" function="internal">
        <lane id=":C3_20_0" index="0" speed="10.36" length="19.50" shape="899.11,308.64 899.35,306.95 902.20,302.20 906.95,299.35 913.60,298.40"/>
    </edge>
    <edge id=":C3_5" function="internal">
        <lane id=":C3_5_0" index="0" speed="6.51" length="9.03" shape="913.60,308.00 911.15,308.35 909.40,309.40 908.35,311.15 908.00,313.60"/>
    </edge>
    <edge id=":C3_6" function="internal">
        <lane id=":C3_6_0" index="0" speed="13.89" length="27.20" shape="913.60,308.00 886.40,308.00"/>
        <lane id=":C3_6_1" index="1" speed="13.89" length="27.20" shape="913.60,304.80 886.40,304.80"/>
        <lane id=":C3_6_2" index="2" speed="13.89" length="27.20" shape="913.60,301.60 886.40,301.60"/>
    </edge>
    <edge id=":C3_9" function="internal">
        <lane id=":C3_9_0" index="0" speed="10.36" length="5.01" shape="913.60,301.60 908.64,300.89"/>
    </edge>
    <edge id=":C3_21" function="internal">
        <lane id=":C3_21_0" index="0" speed="10.36" length="19.50" shape="908.64,300.89 906.95,300.65 902.20,297.80 899.35,293.05 898.40,286.40"/>
    </edge>
    <edge id=":C3_10" function="internal">
        <lane id=":C3_10_0" index="0" speed="6.51" length="9.03" shape="908.00,286.40 908.35,288.85 909.40,290.60 911.15,291.65 913.60,292.00"/>
    </edge>
    <edge id=":C3_11" function="internal">
        <lane id=":C3_11_0" index="0" speed="13.89" length="27.20" shape="908.00,286.40 908.00,313.60"/>
        <lane id=":C3_11_1" index="1" speed="13.89" length="27.20" shape="904.80,286.40 904.80,313.60"/>
        <lane id=":C3_11_2" index="2" speed="13.89" length="27.20" shape="901.60,286.40 901.60,313.60"/>
    </edge>
    <edge id=":C3_14" function="internal">
        <lane id=":C3_14_0" index="0" speed="10.36" length="5.01" shape="901.60,286.40 900.89,291.36"/>
    </edge>
    <edge id=":C3_22" function="internal">
        <lane id=":C3_22_0" index="0" speed="10.36" length="19.50" shape="900.89,291.36 900.65,293.05 897.80,297.80 893.05,300.65 886.40,301.60"/>
    </edge>
    <edge id=":C3_15" function="internal">
        <lane id=":C3_15_0" index="0" speed="6.51" length="9.03" shape="886.40,292.00 888.85,291.65 890.60,290.60 891.65,288.85 892.00,286.40"/>
    </edge>
    <edge id=":C3_16" function="internal">
        <lane id=":C3_16_0" index="0" speed="13.89" length="27.20" shape="886.40,292.00 913.60,292.00"/>
        <lane id=":C3_16_1" index="1" speed="13.89" length="27.20" shape="886.40,295.20 913.60,295.20"/>
        <lane id=":C3_16_2" index="2" speed="13.89" length="27.20" shape="886.40,298.40 913.60,298.40"/>
    </edge>
    <edge id=":C3_19" function="internal">
        <lane id=":C3_19_0" index="0" speed="10.36" length="5.01" shape="886.40,298.40 891.36,299.11"/>
    </edge>
    <edge id=":C3_23" function="internal">
        <lane id=":C3_23_0" index="0" speed="10.36" length="19.50" shape="891.36,299.11 893.05,299.35 897.80,302.20 900.65,306.95 901.60,313.60"/>
    </edge>
    <edge id=":C4_0" function="internal">
        <lane id=":C4_0_0" index="0" speed="6.51" length="9.03" shape="1192.00,313.60 1191.65,311.15 1190.60,309.40 1188.85,308.35 1186.40,308.00"/>
    </edge>
    <edge id=":C4_1" function="internal">
        <lane id=":C4_1_0" index="0" speed="13.89" length="27.20" shape="1192.00,313.60 1192.00,286.40"/>
        <lane id=":C4_1_1" index="1" speed="13.89" length="27.20" shape="1195.20,313.60 1195.20,286.40"/>
        <lane id=":C4_1_2" index="2" speed="13.89" length="27.20" shape="1198.40,313.60 1198.40,286.40"/>
    </edge>
    <edge id=":C4_4" function="internal">
        <lane id=":C4_4_0" index="0" speed="10.36" length="5.01" shape="1198.40,313.60 1199.11,308.64"/>
    </edge>
    <edge id=":C4_20" function="internal">
        <lane id=":C4_20_0" index="0" speed="10.36" length="19.50" shape="1199.11,308.64 1199.35,306.95 1202.20,302.20 1206.95,299.35 1213.60,298.40"/>
    </edge>
    <edge id=":C4_5" function="internal">
        <lane id=":C4_5_0" index="0" speed="6.51" length="9.03" shape="1213.60,308.00 1211.15,308.35 1209.40,309.40 1208.35,311.15 1208.00,313.60"/>
    </edge>
    <edge id=":C4_6" function="internal">
        <lane id=":C4_6_0" index="0" speed="13.89" length="27.20" shape="1213.60,308.00 1186.40,308.00"/>
        <lane id=":C4_6_1" index="1" speed="13.89" length="27.20" shape="1213.60,304.80 1186.40,304.80"/>
        <lane id=":C4_6_2" index="2" speed="13.89" length="27.20" shape="1213.60,301.60 1186.40,301.60"/>
    </edge>
    <edge id=":C4_9" function="internal">
        <lane id=":C4_9_0" index="0" speed="10.36" length="5.01" shape="1213.60,301.60 1208.64,300.89"/>
    </edge>
    <edge id=":C4_21" function="internal">
        <lane id=":C4_21_0" index="0" speed="10.36" length="19.50" shape="1208.64,300.89 1206.95,300.65 1202.20,297.80 1199.35,293.05 1198.40,286.40"/>
    </edge>
    <edge id=":C4_10" function="internal">
        <lane id=":C4_10_0" index="0" speed="6.51" length="9.03" shape="1208.00,286.40 1208.35,288.85 1209.40,290.60 1211.15,291.65 1213.60,292.00"/>
    </edge>
    <edge id=":C4_11" function="internal">
        <lane id=":C4_11_0" index="0" speed="13.89" length="27.20" shape="1208.00,286.40 1208.00,313.60"/>
        <lane id=":C4_11_1" index="1" speed="13.89" length="27.20" shape="1204.80,286.40 1204.80,313.60"/>
        <lane id=":C4_11_2" index="2" speed="13.89" length="27.20" shape="1201.60,286.40 1201.60,313.60"/>
    </edge>
    <edge id=":C4_14" function="internal">
        <lane id=":C4_14_0" index="0" speed="10.36" length="5.01" shape="1201.60,286.40 1200.89,291.36"/>
    </edge>
    <edge id=":C4_22" function="internal">
        <lane id=":C4_22_0" index="0" speed="10.36" length="19.50" shape="1200.89,291.36 1200.65,293.05 1197.80,297.80 1193.05,300.65 1186.40,301.60"/>
    </edge>
    <edge id=":C4_15" function="internal">
        <lane id=":C4_15_0" index="0" speed="6.51" length="9.03" shape="1186.40,292.00 1188.85,291.65 1190.60,290.60 1191.65,288.85 1192.00,286.40"/>
    </edge>
    <edge id=":C4_16" function="internal">
        <lane id=":C4_16_0" index="0" speed="13.89" length="27.20" shape="1186.40,292.00 1213.60,292.00"/>
        <lane id=":C4_16_1" index="1" speed="13.89" length="27.20" shape="1186.40,295.20 1213.60,295.20"/>
        <lane id=":C4_16_2" index="2" speed="13.89" length="27.20" shape="1186.40,298.40 1213.60,298.40"/>
    </edge>
    <edge id=":C4_19" function="internal">
        <lane id=":C4_19_0" index="0" speed="10.36" length="5.01" shape="1186.40,298.40 1191.36,299.11"/>
    </edge>
    <edge id=":C4_23" function="internal">
        <lane id=":C4_23_0" index="0" speed="10.36" length="19.50" shape="1191.36,299.11 1193.05,299.35 1197.80,302.20 1200.65,306.95 1201.60,313.60"/>
    </edge>
    <edge id=":C5_0" function="internal">
        <lane id=":C5_0_0" index="0" speed="6.51" length="9.03" shape="1492.00,313.60 1491.65,311.15 1490.60,309.40 1488.85,308.35 1486.40,308.00"/>
    </edge>
    <edge id=":C5_1" function="internal">
        <lane id=":C5_1_0" index="0" speed="13.89" length="27.20" shape="1492.00,313.60 1492.00,286.40"/>
        <lane id=":C5_1_1" index="1" speed="13.89" length="27.20" shape="1495.20,313.60 1495.20,286.40"/>
        <lane id=":C5_1_2" index="2" speed="13.89" length="27.20" shape="1498.40,313.60 1498.40,286.40"/>
    </edge>
    <edge id=":C5_4" function="internal">
        <lane id=":C5_4_0" index="0" speed="10.36" length="5.01" shape="1498.40,313.60 1499.11,308.64"/>
    </edge>
    <edge id=":C5_20" function="internal">
        <lane id=":C5_20_0" index="0" speed="10.36" length="19.50" shape="1499.11,308.64 1499.35,306.95 1502.20,302.20 1506.95,299.35 1513.60,298.40"/>
    </edge>
    <edge id=":C5_5" function="internal">
        <lane id=":C5_5_0" index="0" speed="6.51" length="9.03" shape="1513.60,308.00 1511.15,308.35 1509.40,309.40 1508.35,311.15 1508.00,313.60"/>
    </edge>
    <edge id=":C5_6" function="internal">
        <lane id=":C5_6_0" index="0" speed="13.89" length="27.20" shape="1513.60,308.00 1486.40,308.00"/>
        <lane id=":C5_6_1" index="1" speed="13.89" length="27.20" shape="1513.60,304.80 1486.40,304.80"/>
        <lane id=":C5_6_2" index="2" speed="13.89" length="27.20" shape="1513.60,301.60 1486.40,301.60"/>
    </edge>
    <edge id=":C5_9" function="internal">
        <lane id=":C5_9_0" index="0" speed="10.36" length="5.01" shape="1513.60,301.60 1508.64,300.89"/>
    </edge>
    <edge id=":C5_21" function="internal">
        <lane id=":C5_21_0" index="0" speed="10.36" length="19.50" shape="1508.64,300.89 1506.95,300.65 1502.20,297.80 1499.35,293.05 1498.40,286.40"/>
    </edge>
    <edge id=":C5_10" function="internal">
        <lane id=":C5_10_0" index="0" speed="6.51" length="9.03" shape="1508.00,286.40 1508.35,288.85 1509.40,290.60 1511.15,291.65 1513.60,292.00"/>
    </edge>
    <edge id=":C5_11" function="internal">
        <lane id=":C5_11_0" index="0" speed="13.89" length="27.20" shape="1508.00,286.40 1508.00,313.60"/>
        <lane id=":C5_11_1" index="1" speed="13.89" length="27.20" shape="1504.80,286.40 1504.80,313.60"/>
        <lane id=":C5_11_2" index="2" speed="13.89" length="27.20" shape="1501.60,286.40 1501.60,313.60"/>
    </edge>
    <edge id=":C5_14" function="internal">
        <lane id=":C5_14_0" index="0" speed="10.36" length="5.01" shape="1501.60,286.40 1500.89,291.36"/>
    </edge>
    <edge id=":C5_22" function="internal">
        <lane id=":C5_22_0" index="0" speed="10.36" length="19.50" shape="1500.89,291.36 1500.65,293.05 1497.80,297.80 1493.05,300.65 1486.40,301.60"/>
    </edge>
    <edge id=":C5_15" function="internal">
        <lane id=":C5_15_0" index="0" speed="6.51" length="9.03" shape="1486.40,292.00 1488.85,291.65 1490.60,290.60 1491.65,288.85 1492.00,286.40"/>
    </edge>
    <edge id=":C5_16" function="internal">
        <lane id=":C5_16_0" index="0" speed="13.89" length="27.20" shape="1486.40,292.00 1513.60,292.00"/>
        <lane id=":C5_16_1" index="1" speed="13.89" length="27.20" shape="1486.40,295.20 1513.60,295.20"/>
        <lane id=":C5_16_2" index="2" speed="13.89" length="27.20" shape="1486.40,298.40 1513.60,298.40"/>
    </edge>
    <edge id=":C5_19" function="internal">
        <lane id=":C5_19_0" index="0" speed="10.36" length="5.01" shape="1486.40,298.40 1491.36,299.11"/>
    </edge>
    <edge id=":C5_23" function="internal">
        <lane id=":C5_23_0" index="0" speed="10.36" length="19.50" shape="1491.36,299.11 1493.05,299.35 1497.80,302.20 1500.65,306.95 1501.60,313.60"/>
    </edge>

    <edge id="C12C2" from="C1" to="C2" priority="-1">
        <lane id="C12C2_0" index="0" speed="13.89" length="272.80" shape="313.60,292.00 586.40,292.00"/>
        <lane id="C12C2_1" index="1" speed="13.89" length="272.80" shape="313.60,295.20 586.40,295.20"/>
        <lane id="C12C2_2" index="2" speed="13.89" length="272.80" shape="313.60,298.40 586.40,298.40"/>
    </edge>
    <edge id="C12N1" from="C1" to="N1" priority="-1">
        <lane id="C12N1_0" index="0" speed="13.89" length="286.40" shape="308.00,313.60 308.00,600.00"/>
        <lane id="C12N1_1" index="1" speed="13.89" length="286.40" shape="304.80,313.60 304.80,600.00"/>
        <lane id="C12N1_2" index="2" speed="13.89" length="286.40" shape="301.60,313.60 301.60,600.00"/>
    </edge>
    <edge id="C12S1" from="C1" to="S1" priority="-1">
        <lane id="C12S1_0" index="0" speed="13.89" length="286.40" shape="292.00,286.40 292.00,0.00"/>
        <lane id="C12S1_1" index="1" speed="13.89" length="286.40" shape="295.20,286.40 295.20,0.00"/>
        <lane id="C12S1_2" index="2" speed="13.89" length="286.40" shape="298.40,286.40 298.40,0.00"/>
    </edge>
    <edge id="C12W_in" from="C1" to="W_in" priority="-1">
        <lane id="C12W_in_0" index="0" speed="13.89" length="286.40" shape="286.40,308.00 0.00,308.00"/>
        <lane id="C12W_in_1" index="1" speed="13.89" length="286.40" shape="286.40,304.80 0.00,304.80"/>
        <lane id="C12W_in_2" index="2" speed="13.89" length="286.40" shape="286.40,301.60 0.00,301.60"/>
    </edge>
    <edge id="C22C1" from="C2" to="C1" priority="-1">
        <lane id="C22C1_0" index="0" speed="13.89" length="272.80" shape="586.40,308.00 313.60,308.00"/>
        <lane id="C22C1_1" index="1" speed="13.89" length="272.80" shape="586.40,304.80 313.60,304.80"/>
        <lane id="C22C1_2" index="2" speed="13.89" length="272.80" shape="586.40,301.60 313.60,301.60"/>
    </edge>
    <edge id="C22C3" from="C2" to="C3" priority="-1">
        <lane id="C22C3_0" index="0" speed="13.89" length="272.80" shape="613.60,292.00 886.40,292.00"/>
        <lane id="C22C3_1" index="1" speed="13.89" length="272.80" shape="613.60,295.20 886.40,295.20"/>
        <lane id="C22C3_2" index="2" speed="13.89" length="272.80" shape="613.60,298.40 886.40,298.40"/>
    </edge>
    <edge id="C22N2" from="C2" to="N2" priority="-1">
        <lane id="C22N2_0" index="0" speed="13.89" length="286.40" shape="608.00,313.60 608.00,600.00"/>
        <lane id="C22N2_1" index="1" speed="13.89" length="286.40" shape="604.80,313.60 604.80,600.00"/>
        <lane id="C22N2_2" index="2" speed="13.89" length="286.40" shape="601.60,313.60 601.60,600.00"/>
    </edge>
    <edge id="C22S2" from="C2" to="S2" priority="-1">
        <lane id="C22S2_0" index="0" speed="13.89" length="286.40" shape="592.00,286.40 592.00,0.00"/>
        <lane id="C22S2_1" index="1" speed="13.89" length="286.40" shape="595.20,286.40 595.20,0.00"/>
        <lane id="C22S2_2" index="2" speed="13.89" length="286.40" shape="598.40,286.40 598.40,0.00"/>
    </edge>
    <edge id="C32C2" from="C3" to="C2" priority="-1">
        <lane id="C32C2_0" index="0" speed="13.89" length="272.80" shape="886.40,308.00 613.60,308.00"/>
        <lane id="C32C2_1" index="1" speed="13.89" length="272.80" shape="886.40,304.80 613.60,304.80"/>
        <lane id="C32C2_2" index="2" speed="13.89" length="272.80" shape="886.40,301.60 613.60,301.60"/>
    </edge>
    <edge id="C32C4" from="C3" to="C4" priority="-1">
        <lane id="C32C4_0" index="0" speed="13.89" length="272.80" shape="913.60,292.00 1186.40,292.00"/>
        <lane id="C32C4_1" index="1" speed="13.89" length="272.80" shape="913.60,295.20 1186.40,295.20"/>
        <lane id="C32C4_2" index="2" speed="13.89" length="272.80" shape="913.60,298.40 1186.40,298.40"/>
    </edge>
    <edge id="C32N3" from="C3" to="N3" priority="-1">
        <lane id="C32N3_0" index="0" speed="13.89" length="286.40" shape="908.00,313.60 908.00,600.00"/>
        <lane id="C32N3_1" index="1" speed="13.89" length="286.40" shape="904.80,313.60 904.80,600.00"/>
        <lane id="C32N3_2" index="2" speed="13.89" length="286.40" shape="901.60,313.60 901.60,600.00"/>
    </edge>
    <edge id="C32S3" from="C3" to="S3" priority="-1">
        <lane id="C32S3_0" index="0" speed="13.89" length="286.40" shape="892.00,286.40 892.00,0.00"/>
        <lane id="C32S3_1" index="1" speed="13.89" length="286.40" shape="895.20,286.40 895.20,0.00"/>
        <lane id="C32S3_2" index="2" speed="13.89" length="286.40" shape="898.40,286.40 898.40,0.00"/>
    </edge>
    <edge id="C42C3" from="C4" to="C3" priority="-1">
        <lane id="C42C3_0" index="0" speed="13.89" length="272.80" shape="1186.40,308.00 913.60,308.00"/>
        <lane id="C42C3_1" index="1" speed="13.89" length="272.80" shape="1186.40,304.80 913.60,304.80"/>
        <lane id="C42C3_2" index="2" speed="13.89" length="272.80" shape="1186.40,301.60 913.60,301.60"/>
    </edge>
    <edge id="C42C5" from="C4" to="C5" priority="-1">
        <lane id="C42C5_0" index="0" speed="13.89" length="272.80" shape="1213.60,292.00 1486.40,292.00"/>
        <lane id="C42C5_1" index="1" speed="13.89" length="272.80" shape="1213.60,295.20 1486.40,295.20"/>
        <lane id="C42C5_2" index="2" speed="13.89" length="272.80" shape="1213.60,298.40 1486.40,298.40"/>
    </edge>
    <edge id="C42N4" from="C4" to="N4" priority="-1">
        <lane id="C42N4_0" index="0" speed="13.89" length="286.40" shape="1208.00,313.60 1208.00,600.00"/>
        <lane id="C42N4_1" index="1" speed="13.89" length="286.40" shape="1204.80,313.60 1204.80,600.00"/>
        <lane id="C42N4_2" index="2" speed="13.89" length="286.40" shape="1201.60,313.60 1201.60,600.00"/>
    </edge>
    <edge id="C42S4" from="C4" to="S4" priority="-1">
        <lane id="C42S4_0" index="0" speed="13.89" length="286.40" shape="1192.00,286.40 1192.00,0.00"/>
        <lane id="C42S4_1" index="1" speed="13.89" length="286.40" shape="1195.20,286.40 1195.20,0.00"/>
        <lane id="C42S4_2" index="2" speed="13.89" length="286.40" shape="1198.40,286.40 1198.40,0.00"/>
    </edge>
    <edge id="C52C4" from="C5" to="C4" priority="-1">
        <lane id="C52C4_0" index="0" speed="13.89" length="272.80" shape="1486.40,308.00 1213.60,308.00"/>
        <lane id="C52C4_1" index="1" speed="13.89" length="272.80" shape="1486.40,304.80 1213.60,304.80"/>
        <lane id="C52C4_2" index="2" speed="13.89" length="272.80" shape="1486.40,301.60 1213.60,301.60"/>
    </edge>
    <edge id="C52E_out" from="C5" to="E_out" priority="-1">
        <lane id="C52E_out_0" index="0" speed="13.89" length="286.40" shape="1513.60,292.00 1800.00,292.00"/>
        <lane id="C52E_out_1" index="1" speed="13.89" length="286.40" shape="1513.60,295.20 1800.00,295.20"/>
        <lane id="C52E_out_2" index="2" speed="13.89" length="286.40" shape="1513.60,298.40 1800.00,298.40"/>
    </edge>
    <edge id="C52N5" from="C5" to="N5" priority="-1">
        <lane id="C52N5_0" index="0" speed="13.89" length="286.40" shape="1508.00,313.60 1508.00,600.00"/>
        <lane id="C52N5_1" index="1" speed="13.89" length="286.40" shape="1504.80,313.60 1504.80,600.00"/>
        <lane id="C52N5_2" index="2" speed="13.89" length="286.40" shape="1501.60,313.60 1501.60,600.00"/>
    </edge>
    <edge id="C52S5" from="C5" to="S5" priority="-1">
        <lane id="C52S5_0" index="0" speed="13.89" length="286.40" shape="1492.00,286.40 1492.00,0.00"/>
        <lane id="C52S5_1" index="1" speed="13.89" length="286.40" shape="1495.20,286.40 1495.20,0.00"/>
        <lane id="C52S5_2" index="2" speed="13.89" length="286.40" shape="1498.40,286.40 1498.40,0.00"/>
    </edge>
    <edge id="E_out2C5" from="E_out" to="C5" priority="-1">
        <lane id="E_out2C5_0" index="0" speed="13.89" length="286.40" shape="1800.00,308.00 1513.60,308.00"/>
        <lane id="E_out2C5_1" index="1" speed="13.89" length="286.40" shape="1800.00,304.80 1513.60,304.80"/>
        <lane id="E_out2C5_2" index="2" speed="13.89" length="286.40" shape="1800.00,301.60 1513.60,301.60"/>
    </edge>
    <edge id="N12C1" from="N1" to="C1" priority="-1">
        <lane id="N12C1_0" index="0" speed="13.89" length="286.40" shape="292.00,600.00 292.00,313.60"/>
        <lane id="N12C1_1" index="1" speed="13.89" length="286.40" shape="295.20,600.00 295.20,313.60"/>
        <lane id="N12C1_2" index="2" speed="13.89" length="286.40" shape="298.40,600.00 298.40,313.60"/>
    </edge>
    <edge id="N22C2" from="N2" to="C2" priority="-1">
        <lane id="N22C2_0" index="0" speed="13.89" length="286.40" shape="592.00,600.00 592.00,313.60"/>
        <lane id="N22C2_1" index="1" speed="13.89" length="286.40" shape="595.20,600.00 595.20,313.60"/>
        <lane id="N22C2_2" index="2" speed="13.89" length="286.40" shape="598.40,600.00 598.40,313.60"/>
    </edge>
    <edge id="N32C3" from="N3" to="C3" priority="-1">
        <lane id="N32C3_0" index="0" speed="13.89" length="286.40" shape="892.00,600.00 892.00,313.60"/>
        <lane id="N32C3_1" index="1" speed="13.89" length="286.40" shape="895.20,600.00 895.20,313.60"/>
        <lane id="N32C3_2" index="2" speed="13.89" length="286.40" shape="898.40,600.00 898.40,313.60"/>
    </edge>
    <edge id="N42C4" from="N4" to="C4" priority="-1">
        <lane id="N42C4_0" index="0" speed="13.89" length="286.40" shape="1192.00,600.00 1192.00,313.60"/>
        <lane id="N42C4_1" index="1" speed="13.89" length="286.40" shape="1195.20,600.00 1195.20,313.60"/>
        <lane id="N42C4_2" index="2" speed="13.89" length="286.40" shape="1198.40,600.00 1198.40,313.60"/>
    </edge>
    <edge id="N52C5" from="N5" to="C5" priority="-1">
        <lane id="N52C5_0" index="0" speed="13.89" length="286.40" shape="1492.00,600.00 1492.00,313.60"/>
        <lane id="N52C5_1" index="1" speed="13.89" length="286.40" shape="1495.20,600.00 1495.20,313.60"/>
        <lane id="N52C5_2" index="2" speed="13.89" length="286.40" shape="1498.40,600.00 1498.40,313.60"/>
    </edge>
    <edge id="S12C1" from="S1" to="C1" priority="-1">
        <lane id="S12C1_0" index="0" speed="13.89" length="286.40" shape="308.00,0.00 308.00,286.40"/>