<?xml version="1.0" encoding="UTF-8"?>
<nodes>
    <node id="C" x="0" y="0" type="traffic_light"/>
    <node id="N" x="0" y="300"/>
    <node id="S" x="0" y="-300"/>
    <node id="E" x="300" y="0"/>
    <node id="W" x="-300" y="0"/>
</nodes>